@<TRIPOS>MOLECULE
*****
 5 5 0 0 0
SMALL
GASTEIGER

@<TRIPOS>ATOM
      1 P          -0.8174    0.9849    1.3402 P.3     1  LIG1        0.0760
      2 S           0.0579    2.9360    1.0480 S.3     1  LIG1       -0.0699
      3 P          -0.4477    1.5617   -0.5363 P.3     1  LIG1        0.0769
      4 BR         -2.9328    1.8207    1.3449 Br      1  LIG1       -0.0406
      5 S           1.1715    0.8547   -0.5657 S.2     1  LIG1       -0.0425
@<TRIPOS>BOND
     1     1     2    1
     2     2     3    1
     3     1     3    2
     4     1     4    1
     5     3     5    2
